Version 4
SHEET 1 1480 680
WIRE 96 -160 0 -160
WIRE 160 -160 96 -160
WIRE 224 -160 160 -160
WIRE 352 -160 224 -160
WIRE 544 -160 432 -160
WIRE 608 -160 544 -160
WIRE 768 -160 672 -160
WIRE 160 -144 160 -160
WIRE 768 -128 768 -160
WIRE 816 -128 768 -128
WIRE 1136 -128 880 -128
WIRE 1296 -128 1136 -128
WIRE 1424 -128 1296 -128
WIRE 1136 -112 1136 -128
WIRE 768 -80 768 -128
WIRE 160 -64 160 -80
WIRE 1424 -64 1424 -128
WIRE 1296 -48 1296 -128
WIRE 96 -32 96 -160
WIRE 96 -32 -176 -32
WIRE 224 -16 224 -160
WIRE 1136 0 1136 -32
WIRE 1136 0 1104 0
WIRE 1136 16 1136 0
WIRE 64 48 -176 48
WIRE 416 48 384 48
WIRE 544 96 544 -160
WIRE 768 96 768 0
WIRE 1136 96 768 96
WIRE 1296 96 1296 16
WIRE 1296 96 1136 96
WIRE 1424 96 1424 16
WIRE 1424 96 1296 96
WIRE 64 144 0 144
WIRE 448 144 384 144
WIRE 1136 144 1136 96
WIRE 448 176 448 144
WIRE 496 176 448 176
WIRE 64 240 0 240
WIRE 544 240 544 192
WIRE 544 240 384 240
WIRE 544 304 544 240
WIRE 0 336 -80 336
WIRE 48 336 0 336
WIRE 64 336 48 336
WIRE 416 336 384 336
WIRE -80 352 -80 336
WIRE 48 352 48 336
WIRE 0 384 0 336
WIRE 224 496 224 400
WIRE 544 496 544 384
WIRE 544 496 224 496
WIRE -80 528 -80 416
WIRE 0 528 -80 528
WIRE 224 528 224 496
WIRE -80 560 -80 528
FLAG 160 -64 0
FLAG 224 528 0
FLAG 1104 0 FBX
FLAG 416 336 FBX
FLAG 1136 144 0
FLAG -80 240 0
FLAG 0 -80 0
FLAG -64 144 0
FLAG -80 560 0
FLAG 416 112 0
FLAG -176 128 0
SYMBOL PowerProducts\\LT3757A 224 192 R0
SYMATTR InstName U1
SYMBOL ind 448 -176 R90
WINDOW 0 5 56 VBottom 2
WINDOW 3 32 56 VTop 2
SYMATTR InstName L1
SYMATTR Value 0.000047
SYMATTR SpiceLine Ipk=3.2 Rser=0.145
SYMBOL ind 752 -96 R0
SYMATTR InstName L2
SYMATTR Value 0.000047
SYMATTR SpiceLine Ipk=0.39 Rser=0.871
SYMBOL diode 816 -112 R270
WINDOW 0 32 32 VTop 2
WINDOW 3 0 32 VBottom 2
SYMATTR InstName D1
SYMBOL Contrib\\Toshiba\\nmos\\TPN2010FNH_G0_00 496 96 R0
SYMATTR InstName U2
SYMBOL res 528 288 R0
SYMATTR InstName RSense
SYMATTR Value 0.05
SYMATTR SpiceLine tol=0.1 pwr=0.1
SYMBOL res 1120 -128 R0
SYMATTR InstName R2
SYMATTR Value 200k
SYMATTR SpiceLine tol=1 pwr=0.25
SYMBOL res 1120 0 R0
SYMATTR InstName R1
SYMATTR Value 1.8k
SYMATTR SpiceLine tol=1 pwr=0.25
SYMBOL cap 672 -176 R90
WINDOW 0 0 32 VBottom 2
WINDOW 3 32 32 VTop 2
SYMATTR InstName C1
SYMATTR Value 22µ
SYMATTR SpiceLine V=16 Irms=3 Rser=3m
SYMBOL cap 144 -144 R0
SYMATTR InstName Cin
SYMATTR Value 22µ
SYMATTR SpiceLine V=16 Rser=10m
SYMBOL cap 1280 -48 R0
SYMATTR InstName C2
SYMATTR Value 1µ
SYMATTR SpiceLine V=250 Irms=2 Rser=8m
SYMBOL res 16 224 R90
WINDOW 0 0 56 VBottom 2
WINDOW 3 32 56 VTop 2
SYMATTR InstName RT
SYMATTR Value 16.5k
SYMBOL voltage 0 -176 R0
WINDOW 123 0 0 Left 0
WINDOW 39 0 0 Left 0
SYMATTR InstName V1
SYMATTR Value 5
SYMBOL cap 0 128 R90
WINDOW 0 0 32 VBottom 2
WINDOW 3 32 32 VTop 2
SYMATTR InstName CSS
SYMATTR Value 100n
SYMBOL res -16 368 R0
SYMATTR InstName RC
SYMATTR Value 10k
SYMBOL cap -96 352 R0
SYMATTR InstName CC2
SYMATTR Value 50p
SYMBOL cap -16 464 R0
SYMATTR InstName CC1
SYMATTR Value 1n
SYMBOL cap 400 48 R0
SYMATTR InstName C3
SYMATTR Value 4.7µ
SYMBOL res -192 -48 R0
SYMATTR InstName R3
SYMATTR Value 27k
SYMBOL res -192 32 R0
SYMATTR InstName R4
SYMATTR Value 12k
SYMBOL res 1408 -80 R0
SYMATTR InstName R5
SYMATTR Value 9k
TEXT -100 584 Left 2 !.tran 1
